# =====================================================================
# | Parameters for Pacanowski&Philander (1981) vertical mixing scheme |
# =====================================================================
 &KPP_PARM01
 KPPwriteState=.FALSE.,
 minKPPhbl = 2.,
 Ricr = 0.45,
# BVSQcon=-0.002.,
 &
