# Packages
 &PACKAGES
  useMNC     = .TRUE.,
  useDiagnostics=.TRUE.,
  useKPP = .TRUE.,
 &
